
     RDKit          3D

 27 27  0  0  0  0  0  0  0  0999 V2000
    5.9766   -9.2068   13.3098 C   0  0  0  0  0  0  0  0  0  0  0  0
    5.2542   -8.3801   12.4184 C   0  0  0  0  0  0  0  0  0  0  0  0
    4.5027   -8.9509   11.3695 C   0  0  0  0  0  0  0  0  0  0  0  0
    4.4776  -10.3496   11.1969 C   0  0  0  0  0  0  0  0  0  0  0  0
    5.2102  -11.1784   12.0704 C   0  0  0  0  0  0  0  0  0  0  0  0
    5.9635  -10.6088   13.1182 C   0  0  0  0  0  0  0  0  0  0  0  0
    6.8153   -8.6021   14.4375 C   0  0  0  0  0  0  0  0  0  0  0  0
    5.9996   -7.7777   15.4909 C   0  0  1  0  0  0  0  0  0  0  0  0
    5.6600   -6.3099   14.9965 C   0  0  0  0  0  0  0  0  0  0  0  0
    6.4535   -5.6763   14.2471 O   0  0  0  0  0  1  0  0  0  0  0  0
    4.5776   -5.7897   15.3957 O   0  0  0  0  0  0  0  0  0  0  0  0
    4.7404   -8.5218   15.9385 N   0  0  0  0  0  0  0  0  0  0  0  0
    4.8687   -9.7399   16.9328 S   0  0  0  0  0  6  0  0  0  0  0  0
    4.5736  -10.8618   15.9581 N   0  0  0  0  0  0  0  0  0  0  0  0
    6.2431   -9.9006   17.3786 O   0  0  0  0  0  0  0  0  0  0  0  0
    3.6887   -9.7033   17.7754 O   0  0  0  0  0  0  0  0  0  0  0  0
    5.2779   -7.2983   12.5287 H   0  0  0  0  0  0  0  0  0  0  0  0
    3.9490   -8.3063   10.6932 H   0  0  0  0  0  0  0  0  0  0  0  0
    3.8994  -10.7861   10.3879 H   0  0  0  0  0  0  0  0  0  0  0  0
    5.1998  -12.2555   11.9329 H   0  0  0  0  0  0  0  0  0  0  0  0
    6.5362  -11.2552   13.7789 H   0  0  0  0  0  0  0  0  0  0  0  0
    7.3434   -9.4046   14.9607 H   0  0  0  0  0  0  0  0  0  0  0  0
    7.6013   -7.9750   14.0059 H   0  0  0  0  0  0  0  0  0  0  0  0
    6.6448   -7.6280   16.3623 H   0  0  0  0  0  0  0  0  0  0  0  0
    4.0462   -7.8851   16.3227 H   0  0  0  0  0  0  0  0  0  0  0  0
    3.5732  -10.9044   16.0499 H   0  0  0  0  0  0  0  0  0  0  0  0
    4.8707  -10.4011   15.1066 H   0  0  0  0  0  0  0  0  0  0  0  0
  1  2  2  0
  1  6  1  0
  1  7  1  0
  2  3  1  0
  2 17  1  0
  3  4  2  0
  3 18  1  0
  4  5  1  0
  4 19  1  0
  5  6  2  0
  5 20  1  0
  6 21  1  0
  7  8  1  0
  7 22  1  0
  7 23  1  0
  8  9  1  0
  8 12  1  0
  8 24  1  1
  9 10  1  0
  9 11  2  0
 12 13  1  0
 12 25  1  0
 13 14  1  0
 13 15  2  0
 13 16  2  0
 14 26  1  0
 14 27  1  0
M  CHG  1  10  -1
M  END
$$$$
